1.D
  PyMOL3.1          3D                             0

 31 33  0  0  1  0  0  0  0  0999 V2000
    3.3265   -6.9320  -25.3719 H   0  0  0  0  0  0  0  0  0  0  0  0
   -3.3673   -6.9486  -22.3298 H   0  0  0  0  0  0  0  0  0  0  0  0
   -1.3824   -8.3951  -22.8820 H   0  0  0  0  0  0  0  0  0  0  0  0
   -2.9799   -9.2258  -22.7503 H   0  0  0  0  0  0  0  0  0  0  0  0
   -2.2929   -5.1710  -20.2770 H   0  0  0  0  0  0  0  0  0  0  0  0
   -0.2570   -6.1500  -19.6618 H   0  0  0  0  0  0  0  0  0  0  0  0
   -1.7152   -5.3091  -21.9342 H   0  0  0  0  0  0  0  0  0  0  0  0
   -1.2136  -10.7045  -22.8800 H   0  0  0  0  0  0  0  0  0  0  0  0
    3.5233   -5.3771  -26.1489 H   0  0  0  0  0  0  0  0  0  0  0  0
   -4.3452   -5.6702  -20.5462 H   0  0  0  0  0  0  0  0  0  0  0  0
    1.0283   -8.7848  -21.8963 H   0  0  0  0  0  0  0  0  0  0  0  0
   -2.9832   -8.8914  -20.3424 H   0  0  0  0  0  0  0  0  0  0  0  0
    0.7377   -2.5274  -23.6773 H   0  0  0  0  0  0  0  0  0  0  0  0
   -1.3760  -10.2730  -22.0380 O   0  0  0  0  0  0  0  0  0  0  0  0
   -2.0280   -9.0170  -22.2620 C   0  0  0  0  0  0  0  0  0  0  0  0
   -2.3380   -8.2530  -20.9460 C   0  0  1  0  0  0  0  0  0  0  0  0
   -1.1470   -7.9570  -20.1840 O   0  0  0  0  0  0  0  0  0  0  0  0
   -0.7210   -6.6180  -20.5300 C   0  0  1  0  0  0  0  0  0  0  0  0
    0.3710   -6.6620  -21.8290 N   0  0  0  0  0  0  0  0  0  0  0  0
    0.7880   -5.6430  -22.6800 C   0  0  0  0  0  0  0  0  0  0  0  0
    0.3970   -4.3240  -22.6470 N   0  0  0  0  0  0  0  0  0  0  0  0
    0.9940   -3.5860  -23.6340 C   0  0  0  0  0  0  0  0  0  0  0  0
    1.8870   -4.0470  -24.5790 N   0  0  0  0  0  0  0  0  0  0  0  0
    2.2550   -5.4100  -24.5670 C   0  0  0  0  0  0  0  0  0  0  0  0
    3.1020   -5.9490  -25.4310 N   0  0  0  0  0  0  0  0  0  0  0  0
    1.6980   -6.2480  -23.5900 C   0  0  0  0  0  0  0  0  0  0  0  0
    1.8980   -7.6110  -23.3680 N   0  0  0  0  0  0  0  0  0  0  0  0
    1.1210   -7.7990  -22.3520 C   0  0  0  0  0  0  0  0  0  0  0  0
   -1.9450   -5.8760  -21.0320 C   0  0  0  0  0  0  0  0  0  0  0  0
   -3.0060   -6.9150  -21.3020 C   0  0  2  0  0  0  0  0  0  0  0  0
   -4.1460   -6.6070  -20.4800 O   0  0  0  0  0  0  0  0  0  0  0  0
  8 14  1  0  0  0  0
 14 15  1  0  0  0  0
  3 15  1  0  0  0  0
  4 15  1  0  0  0  0
 12 16  1  0  0  0  0
 15 16  1  0  0  0  0
 16 17  1  0  0  0  0
 16 30  1  0  0  0  0
 17 18  1  0  0  0  0
  6 18  1  0  0  0  0
 18 19  1  0  0  0  0
 18 29  1  0  0  0  0
 19 20  1  0  0  0  0
 19 28  1  0  0  0  0
 20 21  2  0  0  0  0
 20 26  1  0  0  0  0
 21 22  1  0  0  0  0
 13 22  1  0  0  0  0
 22 23  2  0  0  0  0
 23 24  1  0  0  0  0
 24 25  1  0  0  0  0
 24 26  2  0  0  0  0
  1 25  1  0  0  0  0
  9 25  1  0  0  0  0
 26 27  1  0  0  0  0
 27 28  2  0  0  0  0
 11 28  1  0  0  0  0
  5 29  1  0  0  0  0
  7 29  1  0  0  0  0
 29 30  1  0  0  0  0
  2 30  1  0  0  0  0
 30 31  1  0  0  0  0
 10 31  1  0  0  0  0
M  END
$$$$
